Version 4
SHEET 1 1128 680
WIRE -368 -80 -368 -112
WIRE 336 -80 336 -112
WIRE -672 -64 -992 -64
WIRE -992 16 -992 -64
WIRE -368 80 -368 0
WIRE 336 80 336 0
WIRE -992 144 -992 96
WIRE -672 208 -672 -64
WIRE -672 208 -688 208
WIRE -624 208 -672 208
WIRE -496 208 -544 208
WIRE -368 208 -368 160
WIRE -368 208 -432 208
WIRE -208 208 -368 208
WIRE -176 208 -208 208
WIRE -160 208 -176 208
WIRE 80 208 16 208
WIRE 208 208 160 208
WIRE 336 208 336 160
WIRE 336 208 272 208
WIRE 496 208 336 208
WIRE 528 208 496 208
WIRE 752 208 528 208
WIRE -368 304 -368 208
WIRE 336 304 336 208
WIRE 752 304 752 208
WIRE -208 320 -208 208
WIRE 496 320 496 208
WIRE -688 416 -688 384
WIRE -368 416 -368 384
WIRE -208 416 -208 384
WIRE 16 416 16 208
WIRE 336 416 336 384
WIRE 496 416 496 384
WIRE 752 416 752 384
FLAG 752 416 0
FLAG -368 416 0
FLAG -688 416 0
FLAG -368 -112 0
FLAG -176 208 vin
FLAG 336 416 0
FLAG 336 -112 0
FLAG 528 208 zin
FLAG -208 416 0
FLAG 496 416 0
FLAG 16 416 0
FLAG -992 144 0
SYMBOL current 752 384 R180
WINDOW 0 24 80 Left 2
WINDOW 3 24 0 Left 2
WINDOW 123 24 -28 Left 2
WINDOW 39 0 0 Left 0
SYMATTR InstName I1
SYMATTR Value ""
SYMATTR Value2 AC 1
SYMBOL cap -432 192 R90
WINDOW 0 0 32 VBottom 2
WINDOW 3 32 32 VTop 2
SYMATTR InstName C4
SYMATTR Value 10µ
SYMBOL res -384 288 R0
SYMATTR InstName R4
SYMATTR Value 1000
SYMBOL voltage -688 288 R0
WINDOW 3 24 152 Left 2
WINDOW 123 24 124 Left 2
WINDOW 39 0 0 Left 0
SYMATTR Value SINE(0 2 1000)
SYMATTR Value2 AC 1
SYMATTR InstName V1
SYMBOL res -528 192 R90
WINDOW 0 0 56 VBottom 2
WINDOW 3 32 56 VTop 2
SYMATTR InstName R3
SYMATTR Value 400
SYMBOL res -384 64 R0
SYMATTR InstName R5
SYMATTR Value 1000
SYMBOL voltage -368 16 R180
WINDOW 0 24 96 Left 2
WINDOW 3 24 16 Left 2
WINDOW 123 0 0 Left 0
WINDOW 39 0 0 Left 0
SYMATTR InstName V2
SYMATTR Value 3.3
SYMBOL cap 272 192 R90
WINDOW 0 0 32 VBottom 2
WINDOW 3 32 32 VTop 2
SYMATTR InstName C1
SYMATTR Value 10µ
SYMBOL res 320 288 R0
SYMATTR InstName R1
SYMATTR Value 1000
SYMBOL res 176 192 R90
WINDOW 0 0 56 VBottom 2
WINDOW 3 32 56 VTop 2
SYMATTR InstName R2
SYMATTR Value 400
SYMBOL res 320 64 R0
SYMATTR InstName R6
SYMATTR Value 1000
SYMBOL voltage 336 16 R180
WINDOW 0 24 96 Left 2
WINDOW 3 24 16 Left 2
WINDOW 123 0 0 Left 0
WINDOW 39 0 0 Left 0
SYMATTR InstName V4
SYMATTR Value 3.3
SYMBOL cap -192 384 R180
WINDOW 0 24 56 Left 2
WINDOW 3 24 8 Left 2
SYMATTR InstName C2
SYMATTR Value 470n
SYMBOL cap 512 384 R180
WINDOW 0 24 56 Left 2
WINDOW 3 24 8 Left 2
SYMATTR InstName C3
SYMATTR Value 470n
SYMBOL bv -992 0 R0
SYMATTR InstName B1
SYMATTR Value V=2*sin(2*pi*pow(10,time)*time)
TEXT 848 424 Left 2 !;ac dec 100 1 100000
TEXT 848 384 Left 2 !.tran 0 3 0 0.00001
